LTspice 24.1.1 for Windows
Circuit: C:\Users\gupta\Desktop\vlsi\4th sem\Analog\BJT_100gain.net
Start Time: Wed Apr  9 22:04:18 2025
solver = Normal
Maximum thread count: 16
tnom = 27
temp = 27
method = trap
Direct Newton iteration for .op point succeeded.
Total elapsed time: 0.054 seconds.

Files loaded:
C:\Users\gupta\Desktop\vlsi\4th sem\Analog\BJT_100gain.net
C:\Users\gupta\AppData\Local\LTspice\lib\cmp\standard.bjt

