LTspice 24.1.1 for Windows
Circuit: C:\Users\gupta\Desktop\vlsi\4th sem\Analog\PROJECT\draft1.net
Start Time: Fri May  2 11:03:50 2025
solver = Normal
Maximum thread count: 16
tnom = 27
temp = 27
method = trap
C:\Users\gupta\Desktop\vlsi\4th sem\Analog\PROJECT\draft1.net(28): Limiting rise time to 0.001.

V2 ir1 0 PULSE(0 5 0 0 0 10ms)
^^^^^^^^^^^^^^^^^^^^^^^^^^^^^^
C:\Users\gupta\Desktop\vlsi\4th sem\Analog\PROJECT\draft1.net(28): Limiting fall time to 0.001.

V2 ir1 0 PULSE(0 5 0 0 0 10ms)
^^^^^^^^^^^^^^^^^^^^^^^^^^^^^^
C:\Users\gupta\Desktop\vlsi\4th sem\Analog\PROJECT\draft1.net(29): Limiting rise time to 0.001.

V3 ir2 0 PULSE(0 5 0.072 0 0 10ms)
^^^^^^^^^^^^^^^^^^^^^^^^^^^^^^^^^^
C:\Users\gupta\Desktop\vlsi\4th sem\Analog\PROJECT\draft1.net(29): Limiting fall time to 0.001.

V3 ir2 0 PULSE(0 5 0.072 0 0 10ms)
^^^^^^^^^^^^^^^^^^^^^^^^^^^^^^^^^^
WARNING: Node n014 is floating.
WARNING: Node n008 is floating.

Per .tran options, skipping operating point for transient analysis.
Changing Tseed to 5e-11
Changing Tseed to 5e-13
Changing Tseed to 5e-10
Changing Tseed to 5e-14
Changing Tseed to 5e-09
Changing Tseed to 5e-15
Changing Tseed to 5e-08
Changing Tseed to 5e-16
Changing Tseed to 5e-07
Changing Tseed to 5e-17
Changing Tseed to 5e-06
Changing Tseed to 5e-18
Changing Tseed to 1e-17
Changing Tseed to 1e-19
Changing Tseed to 1e-16
Changing Tseed to 1e-20
Changing Tseed to 1e-15
Changing Tseed to 1e-21
Changing Tseed to 1e-14
Changing Tseed to 1e-22
Changing Tseed to 1e-13
Changing Tseed to 1e-23
Changing Tseed to 1e-12
Changing Tseed to 1e-24
Warning: Simulation tolerance relaxed to achieve convergence from 0.0000000000000000e+00 Changing Tseed to 1e-17
Changing Tseed to 1e-19
Changing Tseed to 1e-16
Changing Tseed to 1e-20
Changing Tseed to 1e-15
Changing Tseed to 1e-21
Changing Tseed to 1e-14
Changing Tseed to 1e-22
Changing Tseed to 1e-13
Changing Tseed to 1e-23
Changing Tseed to 1e-12
Changing Tseed to 1e-24
Changing Tseed to 1e-17
Changing Tseed to 1e-19
Changing Tseed to 1e-16
Changing Tseed to 1e-20
Changing Tseed to 1e-15
Changing Tseed to 1e-21
Changing Tseed to 1e-14
Changing Tseed to 1e-22
Changing Tseed to 1e-13
Changing Tseed to 1e-23
Changing Tseed to 1e-12
Changing Tseed to 1e-24
Changing Tseed to 1e-17
Changing Tseed to 1e-19
Changing Tseed to 1e-16
Changing Tseed to 1e-20
Changing Tseed to 1e-15
Changing Tseed to 1e-21
Changing Tseed to 1e-14
Changing Tseed to 1e-22
Changing Tseed to 1e-13
Changing Tseed to 1e-23
Changing Tseed to 1e-12
Changing Tseed to 1e-24
Changing Tseed to 1e-17
Changing Tseed to 1e-19
Changing Tseed to 1e-16
Changing Tseed to 1e-20
Changing Tseed to 1e-15
Changing Tseed to 1e-21
Changing Tseed to 1e-14
Changing Tseed to 1e-22
Changing Tseed to 1e-13
Changing Tseed to 1e-23
Changing Tseed to 1e-12
Changing Tseed to 1e-24
Changing Tseed to 1e-17
Changing Tseed to 1e-19
Changing Tseed to 1e-16
Changing Tseed to 1e-20
Changing Tseed to 1e-15
Changing Tseed to 1e-21
Changing Tseed to 1e-14
Changing Tseed to 1e-22
Changing Tseed to 1e-13
Changing Tseed to 1e-23
Changing Tseed to 1e-12
Changing Tseed to 1e-24
Changing Tseed to 1e-17
Changing Tseed to 1e-19
Changing Tseed to 1e-16
Changing Tseed to 1e-20
Changing Tseed to 1e-15
Changing Tseed to 1e-21
Changing Tseed to 1e-14
Changing Tseed to 1e-22
Changing Tseed to 1e-13
Changing Tseed to 1e-23
Changing Tseed to 1e-12
Changing Tseed to 1e-24
Changing Tseed to 1e-17
Changing Tseed to 1e-19
Changing Tseed to 1e-16
Changing Tseed to 1e-20
Changing Tseed to 1e-15
Changing Tseed to 1e-21
Changing Tseed to 1e-14
Changing Tseed to 1e-22
Changing Tseed to 1e-13
Changing Tseed to 1e-23
Changing Tseed to 1e-12
Changing Tseed to 1e-24
Changing Tseed to 1e-17
Changing Tseed to 1e-19
Changing Tseed to 1e-16
Changing Tseed to 1e-20
Changing Tseed to 1e-15
Changing Tseed to 1e-21
Changing Tseed to 1e-14
Changing Tseed to 1e-22
Changing Tseed to 1e-13
Changing Tseed to 1e-23
Changing Tseed to 1e-12
Changing Tseed to 1e-24
Changing Tseed to 1e-17
Changing Tseed to 1e-19
Changing Tseed to 1e-16
Changing Tseed to 1e-20
Changing Tseed to 1e-15
Changing Tseed to 1e-21
Changing Tseed to 1e-14
Changing Tseed to 1e-22
Changing Tseed to 1e-13
Changing Tseed to 1e-23
Changing Tseed to 1e-12
Changing Tseed to 1e-24
Changing Tseed to 1e-17
Changing Tseed to 1e-19
Changing Tseed to 1e-16
Changing Tseed to 1e-20
Changing Tseed to 1e-15
Changing Tseed to 1e-21
Changing Tseed to 1e-14
Changing Tseed to 1e-22
Changing Tseed to 1e-13
Changing Tseed to 1e-23
Changing Tseed to 1e-12
Changing Tseed to 1e-24
Changing Tseed to 1e-17
Changing Tseed to 1e-19
Changing Tseed to 1e-16
Changing Tseed to 1e-20
Changing Tseed to 1e-15
Changing Tseed to 1e-21
Changing Tseed to 1e-14
Changing Tseed to 1e-22
Changing Tseed to 1e-13
Changing Tseed to 1e-23
Changing Tseed to 1e-12
Changing Tseed to 1e-24
Changing Tseed to 1e-17
Changing Tseed to 1e-19
Changing Tseed to 1e-16
Changing Tseed to 1e-20
Changing Tseed to 1e-15
Changing Tseed to 1e-21
Changing Tseed to 1e-14
Changing Tseed to 1e-22
Changing Tseed to 1e-13
Changing Tseed to 1e-23
Changing Tseed to 1e-12
Changing Tseed to 1e-24
Changing Tseed to 1e-17
Changing Tseed to 1e-19
Changing Tseed to 1e-16
Changing Tseed to 1e-20
Changing Tseed to 1e-15
Changing Tseed to 1e-21
Changing Tseed to 1e-14
Changing Tseed to 1e-22
Changing Tseed to 1e-13
Changing Tseed to 1e-23
Changing Tseed to 1e-12
Changing Tseed to 1e-24
Changing Tseed to 1e-17
Changing Tseed to 1e-19
Changing Tseed to 1e-16
Changing Tseed to 1e-20
Changing Tseed to 1e-15
Changing Tseed to 1e-21
Changing Tseed to 1e-14
Changing Tseed to 1e-22
Changing Tseed to 1e-13
Changing Tseed to 1e-23
Changing Tseed to 1e-12
Changing Tseed to 1e-24
Changing Tseed to 1e-17
Changing Tseed to 1e-19
Changing Tseed to 1e-16
Changing Tseed to 1e-20
Changing Tseed to 1e-15
Changing Tseed to 1e-21
Changing Tseed to 1e-14
Changing Tseed to 1e-22
Changing Tseed to 1e-13
Changing Tseed to 1e-23
Changing Tseed to 1e-12
Changing Tseed to 1e-24
Changing Tseed to 1e-17
Changing Tseed to 1e-19
Changing Tseed to 1e-16
Changing Tseed to 1e-20
Changing Tseed to 1e-15
Changing Tseed to 1e-21
Changing Tseed to 1e-14
Changing Tseed to 1e-22
Changing Tseed to 1e-13
Changing Tseed to 1e-23
Changing Tseed to 1e-12
Changing Tseed to 1e-24
Changing Tseed to 1e-17
Changing Tseed to 1e-19
Changing Tseed to 1e-16
Changing Tseed to 1e-20
Changing Tseed to 1e-15
Changing Tseed to 1e-21
Changing Tseed to 1e-14
Changing Tseed to 1e-22
Changing Tseed to 1e-13
Changing Tseed to 1e-23
Changing Tseed to 1e-12
Changing Tseed to 1e-24
Changing Tseed to 1e-17
Changing Tseed to 1e-19
Changing Tseed to 1e-16
Changing Tseed to 1e-20
Changing Tseed to 1e-15
Changing Tseed to 1e-21
Changing Tseed to 1e-14
Changing Tseed to 1e-22
Changing Tseed to 1e-13
Changing Tseed to 1e-23
Changing Tseed to 1e-12
Changing Tseed to 1e-24
Changing Tseed to 1e-17
Changing Tseed to 1e-19
Changing Tseed to 1e-16
Changing Tseed to 1e-20
Changing Tseed to 1e-15
Changing Tseed to 1e-21
Changing Tseed to 1e-14
Changing Tseed to 1e-22
Changing Tseed to 1e-13
Changing Tseed to 1e-23
Changing Tseed to 1e-12
Changing Tseed to 1e-24
Changing Tseed to 1e-17
Changing Tseed to 1e-19
Changing Tseed to 1e-16
Changing Tseed to 1e-20
Changing Tseed to 1e-15
Changing Tseed to 1e-21
Changing Tseed to 1e-14
Changing Tseed to 1e-22
Changing Tseed to 1e-13
Changing Tseed to 1e-23
Changing Tseed to 1e-12
Changing Tseed to 1e-24
Changing Tseed to 1e-17
Changing Tseed to 1e-19
Changing Tseed to 1e-16
Changing Tseed to 1e-20
Changing Tseed to 1e-15
Changing Tseed to 1e-21
Changing Tseed to 1e-14
Changing Tseed to 1e-22
Changing Tseed to 1e-13
Changing Tseed to 1e-23
Changing Tseed to 1e-12
Changing Tseed to 1e-24
to 3.0000000000000002e-18 seconds.
Total elapsed time: 17.260 seconds.

Simulation Failed: 

Total elapsed time: 17.260 seconds.

Files loaded:
C:\Users\gupta\Desktop\vlsi\4th sem\Analog\PROJECT\draft1.net
C:\Users\gupta\AppData\Local\LTspice\lib\cmp\standard.dio
C:\Users\gupta\AppData\Local\LTspice\lib\cmp\standard.mos
C:\Users\gupta\AppData\Local\LTspice\lib\sub\LTC.lib
C:\Users\gupta\AppData\Local\LTspice\lib\sub\NE555.sub

